Program Version,EnergyPlus-Windows-64 8.0.0.008, YMD=2015.10.15 14:57,IDD_Version 8.0.0.008
   ** Warning ** ManageSizing: For a zone sizing run, there must be at least 1 Sizing:Zone input object. SimulationControl Zone Sizing option ignored.
   ** Warning ** ManageSizing: For a plant sizing run, there must be at least 1 Sizing:Plant object input. SimulationControl Plant Sizing option ignored.
   ** Warning ** WindowMaterial:Blind="BLIND", Illegal value combination.
   **   ~~~   ** Minimum Slat Angle=[0.0] is less than the smallest allowed by slat dimensions and spacing, min=[2.9] deg.
   **   ~~~   ** Minimum Slat Angle will be set to 2.9 deg.
   ** Warning ** WindowMaterial:Blind="BLIND", Illegal value combination.
   **   ~~~   ** Maximum Slat Angle=[180.0] is greater than the largest allowed by slat dimensions and spacing, [177.1] deg.
   **   ~~~   ** Maximum Slat Angle will be set to 177.1 deg.
   ************* Testing Individual Branch Integrity
   ************* All Branches passed integrity testing
   ************* Testing Individual Supply Air Path Integrity
   ************* All Supply Air Paths passed integrity testing
   ************* Testing Individual Return Air Path Integrity
   ************* All Return Air Paths passed integrity testing
   ************* No node connection errors were found.
   ************* Beginning Simulation
   ************* Simulation Error Summary *************
   ************* EnergyPlus Warmup Error Summary. During Warmup: 0 Warning; 0 Severe Errors.
   ************* EnergyPlus Sizing Error Summary. During Sizing: 2 Warning; 0 Severe Errors.
   ************* EnergyPlus Completed Successfully-- 4 Warning; 0 Severe Errors; Elapsed Time=00hr 00min  2.06sec
